&NAM_CONFIO  LCDF4=T, LLFIOUT=T, LLFIREAD=F /
&NAM_CONFZ
  ! NZ_VERB = 5 , NZ_PROC = 0 , NB_PROCIO_R = 8 , NB_PROCIO_W = 8
 /
&NAM_LUNITn  CINIFILE = "RELIEF3D" /
&NAM_CONFn  LUSERV = T, NSV_USER=2 /
&NAM_ADVn  CUVW_ADV_SCHEME= "CEN4TH",
           CTEMP_SCHEME= "RKC4",
           CMET_ADV_SCHEME= "PPM_01",
           CSV_ADV_SCHEME= "PPM_01"
/
&NAM_LBCn  CLBCX = 2*"OPEN", CLBCY = 2*"OPEN" /
&NAM_CONF  CCONF = "START", NMODEL = 1,
           CSPLIT='BSPLITTING' ,
           NVERB = 5, CEXP = "REL3D", CSEG = "EXP01"
           !JPHEXT=3 NHALO=3
           /
&nam_turbn
    ximpl = 1.0
    cturblen = 'DELT'
    cturbdim = '3DIM'
    lturb_flx = .false.
    lturb_diag = .false.
!   lsubg_cond = .true.
/
&NAM_DYN XSEGLEN =300., XASSELIN = 0.2, LCORIO = F,
         XALKTOP = 0.005, XALZBOT = 8000., LNUMDIFU =.T. /
&NAM_BACKUP XBAK_TIME_FREQ(1) = 300., XBAK_TIME_FREQ_FIRST(1) =300. /

&nam_paramn
    cturb = 'TKEL'
    crad = 'ECMW'
    ccloud = 'ICE3'
    cdconv = 'NONE'
    csconv = 'NONE'
/

&nam_param_radn
    xdtrad = 500.0
    xdtrad_clonly = 500.0
    lclear_sky = .false.
    nrad_colnbr = 400
/

&nam_dynn
    xtstep = 5
    cpresopt = 'ZRESI'
    nitr = 10
    lhorelax_uvwth = .false.
    lhorelax_rv = .false.
    lve_relax = .true.
    nrimx = 5
    nrimy = 5
    xrimkmax = 0.000625
    xt4difu = 400.0
/
&nam_forefire
    lforefire = .true.
    couplingres = 55000
    nffscalars = 1
    ffsvnames(1) = 'BRatio'
    ffoutups = 10
    physout = 1
    cloudout = 1
    surfout = 1
    flowout = 1
    chemout = 0
/
&NAM_DUST
    LDUST = .FALSE.,
    LVARSIG = .FALSE.,
    LSEDIMDUST = .TRUE.,
    LRGFIX_DST = .FALSE.,
    NMODE_DST=2 / 
