&NAM_PGD1 YPGD1 = 'PGD_D3200mA' /
&NAM_PGD2 YPGD2 = 'PGD_DFIREmA',  IDAD = 1 /
&NAM_NEST_PGD YNEST = 'ed' /
&NAM_CONFIO LCDF4=T LLFIREAD=T LLFIOUT=T
/
