&NAM_CONFZ
  !NZ_VERB=5 , NZ_PROC=0 , NB_PROCIO_R=1 , NB_PROCIO_W=8
/
&NAM_REAL_CONF NVERB=5 , CPRESOPT='ZRESI' 
               !JPHEXT=3 , NHALO=3 
               /
&NAM_FILE_NAMES HATMFILE ='cep.FC00Z.P.12' , HATMFILETYPE='GRIBEX',
                HPGDFILE ='PGD_D3200mA.nested' , CINIFILE='M1.P.12' /
&NAM_VER_GRID NKMAX=50, YZGRID_TYPE='FUNCTN',
       ZDZGRD=60., ZDZTOP=700.,
       ZZMAX_STRGRD=2500., ZSTRGRD=9., ZSTRTOP=7. /
